// Auto-generated by foamMesh on 26-Aug-2018 at 21:21:08
/*--------------------------------*- C++ -*----------------------------------* 
| =========                 |                                                 | 
| \      /  F ield         | OpenFOAM: The Open Source CFD Toolbox           | 
|  \    /   O peration     | Version:  2.4.0                                 | 
|   \  /    A nd           | Web:      www.OpenFOAM.org                      | 
|    \/     M anipulation  |                                                 | 
*---------------------------------------------------------------------------*/ 
FoamFile 
{
    version     2.0;
    format      ascii;
    class       volScalarField;
    location    "0";
    object      p;
}
// * * * * * * * * * * * * * * * * * * * * * * * * * * * * * * * * * * * * * // 

dimensions      [0 2 -2 0 0 0 0];

internalField   uniform 0; 

boundaryField 
{ 
    w-01
    { 
        type    zeroGradient;
    }
    w-00
    { 
        type    zeroGradient;
    }
}

// * * * * * * * * * * * * * * * * * * * * * * * * * * * * * * * * * * * * * // 
